7
xyz
O                0.000000     0.063030     0.000000
H               -0.752652    -0.500166     0.000000
H                0.752652    -0.500166     0.000000
N                0.000000     0.000000     4.936823
H               -0.466791    -0.808506     5.292603
H               -0.466791     0.808506     5.292603
H                0.933582     0.000000     5.292603
7
xyz
O                0.181750     0.002335     0.173884
H               -0.580852    -0.532812     0.048468
H                0.913426    -0.503047    -0.130933
N               -0.087119     0.140515     4.819242
H               -0.399570    -0.731139     5.194409
H               -0.693559     0.858511     5.158166
H                0.830469     0.318261     5.172220
7
xyz
O                0.205283     0.236199     0.399324
H               -0.653299    -0.146434     0.409524
H                0.739123    -0.324368    -0.134018
N               -0.025256    -0.097297     4.685655
H               -0.855377    -0.632644     4.835516
H               -0.066271     0.708736     5.274540
H                0.755747    -0.650535     4.972220
7
xyz
O                0.003633     0.026776     0.669870
H               -0.842116    -0.343243     0.492475
H                0.627277    -0.503275     0.207497
N                0.033834    -0.205482     4.758334
H               -0.471587    -1.061740     4.855951
H               -0.445755     0.498273     5.280712
H                0.937445    -0.331316     5.165529
7
xyz
O                0.165619     0.019925     0.823388
H               -0.765420    -0.079143     0.739570
H                0.545913    -0.405729     0.076480
N               -0.021617    -0.027493     4.993564
H               -0.788433    -0.573514     4.658884
H               -0.369209     0.601587     5.687533
H                0.629152    -0.644804     5.433544
7
xyz
O               -0.046777    -0.129637     0.890622
H               -0.933176    -0.334683     1.127113
H                0.169978    -0.687192     0.165484
N               -0.254359    -0.048591     4.786494
H               -0.723821    -0.548645     4.060060
H               -0.917545     0.557506     5.223516
H                0.055638    -0.710606     5.467518
7
xyz
O                0.145869    -0.265394     0.917123
H               -0.740208    -0.428125     1.185565
H                0.238145    -0.645778     0.062448
N               -0.159936    -0.032780     4.569418
H               -0.163715    -0.641057     3.776865
H               -0.935274     0.591505     4.484123
H               -0.299221    -0.589313     5.387358
7
xyz
O                0.049599    -0.170102     1.175890
H               -0.809171    -0.550784     1.140245
H                0.419877    -0.270179     0.317663
N               -0.205633     0.205547     4.527167
H                0.234690    -0.485984     3.956154
H               -0.986376     0.571975     4.022859
H               -0.551934    -0.245922     5.348390
7
xyz
O               -0.004011    -0.312869     1.414057
H               -0.420383    -1.095976     1.102524
H                0.716332    -0.146549     0.833438
N               -0.127414     0.155657     4.607155
H                0.282736    -0.383892     3.873112
H               -0.794021     0.777710     4.198693
H               -0.617857    -0.468892     5.213423
7
xyz
O                0.221011    -0.208124     1.344101
H               -0.093916    -1.081754     1.198267
H                0.932341    -0.078895     0.743282
N               -0.269236     0.180962     4.483620
H                0.150963    -0.109841     3.625120
H               -0.827593     0.988175     4.297070
H               -0.875600    -0.549678     4.794497
7
xyz
O                0.368538    -0.405105     1.124959
H               -0.215720    -1.137464     1.202204
H                1.169036    -0.741327     0.764636
N               -0.438278     0.159422     4.662968
H                0.125564     0.377841     3.867649
H               -1.271322     0.708597     4.611986
H               -0.698165    -0.803401     4.603086
7
xyz
O                0.683940    -0.573338     1.328418
H               -0.112236    -0.791798     1.777923
H                0.788228    -1.213104     0.647611
N               -0.253394    -0.058680     4.403475
H               -0.015007     0.599684     3.690815
H               -1.245836    -0.173557     4.399254
H                0.160748    -0.936126     4.165290
7
xyz
O                0.942456    -0.502073     1.350152
H                0.071251    -0.763097     1.587939
H                1.075156    -0.794692     0.466728
N               -0.471263     0.034069     4.260537
H               -0.288897     0.462082     3.376397
H               -1.461715    -0.027621     4.376106
H               -0.104043    -0.894758     4.236364
7
xyz
O                0.835153    -0.630419     1.125599
H               -0.007984    -1.035727     1.217900
H                1.238152    -1.024947     0.373526
N               -0.473677     0.275586     4.152219
H               -0.540601     0.976064     3.442988
H               -1.366805    -0.163762     4.238545
H                0.181828    -0.413355     3.845903
7
xyz
O                0.802311    -0.629135     1.015144
H                0.102941    -1.257271     1.014893
H                1.487210    -0.994611     0.485035
N               -0.724669     0.225727     4.259674
H               -1.010741     0.971393     3.659422
H               -1.439218    -0.472442     4.248044
H                0.107023    -0.176252     3.879071
7
xyz
O                0.889610    -0.570075     1.135960
H                0.033579    -0.896663     1.346258
H                1.202871    -1.090030     0.418193
N               -0.498397     0.318996     4.341430
H               -0.949285     1.068346     3.858386
H               -1.107265    -0.472862     4.321475
H                0.332737     0.083055     3.839730
7
xyz
O                0.783336    -0.383120     1.219827
H               -0.112661    -0.165688     1.403096
H                0.770834    -1.219286     0.790474
N               -0.467961     0.354534     4.433127
H               -0.846178     1.200918     4.060647
H               -1.052480    -0.400906     4.140201
H                0.437572     0.218071     4.033698
7
xyz
O                0.809728    -0.546698     1.099057
H               -0.106115    -0.630664     1.293618
H                1.066019    -1.347441     0.678581
N               -0.293536     0.347194     4.322284
H               -0.115754     1.283032     4.021024
H               -1.119293     0.025220     3.861183
H                0.470013    -0.224149     4.024430
7
xyz
O                0.878823    -0.370881     1.261315
H               -0.047474    -0.332150     1.416713
H                1.065435    -1.250986     0.988797
N               -0.183263     0.407402     4.192078
H               -0.195557     1.334971     3.821104
H               -1.105773     0.031428     4.116085
H                0.424093    -0.145430     3.623174
7
xyz
O                0.966529    -0.453422     1.140969
H                0.070818    -0.174027     1.083386
H                0.947290    -1.389055     1.229821
N                0.030398     0.452064     4.070933
H               -0.045040     1.380959     3.710907
H               -0.764189    -0.066563     3.758181
H                0.847738     0.033156     3.677705
7
xyz
O                1.234550    -0.367869     0.987624
H                0.547372     0.237031     1.201067
H                0.817462    -1.191742     0.811709
N               -0.199988     0.384498     3.964001
H               -0.622978     1.192863     3.556837
H               -0.507032    -0.416575     3.451984
H                0.789611     0.463122     3.851455
7
xyz
O                0.992440    -0.590060     0.962229
H                0.222362    -0.199310     1.333671
H                0.743638    -1.452265     0.682276
N               -0.406764     0.429515     4.003802
H               -0.909363     1.159297     3.542317
H               -0.526947    -0.410461     3.476401
H                0.563734     0.666456     3.991564
7
xyz
O                1.191244    -0.590654     0.790681
H                0.347589    -0.394436     1.155947
H                1.139315    -1.469134     0.460149
N               -0.332314     0.295836     4.182178
H               -0.257368     1.226254     3.826003
H               -1.198523    -0.088059     3.865218
H                0.408894    -0.246657     3.789154
7
xyz
O                1.008557    -0.591850     0.643834
H                0.100408    -0.513111     0.873487
H                1.161824    -1.504220     0.477205
N               -0.104314     0.216086     4.340828
H               -0.530117     1.095443     4.132074
H               -0.822789    -0.477722     4.364930
H                0.519843    -0.010524     3.594349
7
xyz
O                1.173118    -0.551202     0.825419
H                0.394536    -0.024468     0.819368
H                0.887413    -1.446769     0.827892
N               -0.058626     0.013544     4.438627
H               -0.858463     0.575446     4.232025
H               -0.286358    -0.936978     4.231739
H                0.682191     0.293888     3.829732
7
xyz
O                1.078533    -0.614666     0.681613
H                0.614545     0.202526     0.705816
H                0.425247    -1.290602     0.679838
N               -0.017650    -0.242634     4.370589
H               -0.621208     0.530209     4.179312
H               -0.568220    -1.076198     4.356448
H                0.652725    -0.301944     3.632188
7
xyz
O                0.940473    -0.491497     0.703645
H                0.068815    -0.199954     0.900853
H                0.896683    -1.427615     0.629885
N                0.085193    -0.356111     4.448732
H                0.212094     0.573539     4.105507
H               -0.896128    -0.538165     4.493689
H                0.487174    -0.987801     3.787268
7
xyz
O                1.008929    -0.473263     0.651621
H                0.148327    -0.364692     1.013906
H                1.080130    -1.377174     0.403527
N                0.165401    -0.543522     4.205677
H                0.490087     0.358598     3.924762
H               -0.818650    -0.584337     4.037942
H                0.606933    -1.226057     3.624857
7
xyz
O                1.133339    -0.478974     0.387155
H                0.557109     0.231209     0.604580
H                0.591073    -1.240971     0.292372
N                0.238900    -0.348444     4.038882
H                0.984890     0.206596     3.673389
H               -0.624036     0.077605     3.770591
H                0.285299    -1.249894     3.610640
7
xyz
O                1.034884    -0.276544     0.225692
H                0.460253     0.440776     0.422990
H                0.484234    -1.022255     0.069571
N                0.323787    -0.124399     3.875384
H                1.270330    -0.035027     3.568423
H               -0.216544     0.583593     3.422675
H               -0.016724    -1.013900     3.573727
7
xyz
O                1.138900    -0.001260     0.091754
H                0.213487     0.023657     0.255047
H                1.339981    -0.884178    -0.160629
N                0.304218    -0.086397     4.102617
H                1.266473     0.157087     3.988872
H               -0.220646     0.388593     3.397594
H                0.213131    -1.069062     3.946964
7
xyz
O                1.227717     0.253396     0.331419
H                0.340199     0.281730     0.639938
H                1.290293    -0.499897    -0.227426
N                0.386840     0.039212     4.252807
H                1.247255     0.485942     4.011405
H               -0.346002     0.478903     3.735342
H                0.441413    -0.915102     3.962183
7
xyz
O                1.192589     0.086632     0.501354
H                0.452223    -0.401178     0.813725
H                1.457412    -0.319851    -0.303826
N                0.337726     0.097363     4.303594
H                0.895588     0.877944     4.024956
H               -0.497044     0.101889     3.754691
H                0.844118    -0.736942     4.089917
7
xyz
O                1.240203    -0.167105     0.612259
H                0.588146    -0.751238     0.954726
H                1.313103    -0.359473    -0.304995
N                0.120894     0.108911     4.301755
H                0.964985     0.604674     4.102043
H               -0.509742     0.252161     3.540221
H                0.337195    -0.865495     4.345374
7
xyz
O                1.315116    -0.189359     0.416577
H                0.563754    -0.601886     0.802519
H                1.450365    -0.608398    -0.413958
N               -0.143444     0.216762     4.337916
H                0.487406     0.965870     4.140380
H               -0.730553     0.087979     3.539872
H                0.394400    -0.615690     4.464026
7
xyz
O                1.580051    -0.419734     0.176809
H                0.964088    -0.796846     0.778515
H                1.527975    -0.930275    -0.610789
N               -0.291791     0.277000     4.563355
H                0.090945     1.167816     4.322284
H               -0.849247    -0.038127     3.796482
H                0.465613    -0.364109     4.679437
7
xyz
O                1.802433    -0.173290     0.389183
H                1.222134    -0.684753     0.923349
H                2.021296    -0.708361    -0.352081
N               -0.457345     0.268790     4.784526
H                0.232346     0.958383     5.001190
H               -0.685075     0.352659     3.815371
H               -0.050645    -0.632084     4.930050
7
xyz
O                1.625967    -0.192038     0.524084
H                1.444110    -0.709732     1.287363
H                1.609404    -0.782656    -0.207059
N               -0.319951     0.519544     4.692320
H                0.433907     1.108817     4.979741
H               -0.466595     0.659582     3.714035
H               -0.040845    -0.429727     4.830670
7
xyz
O                1.698356    -0.362328     0.538038
H                1.466686    -1.134511     1.021500
H                1.593256    -0.577143    -0.371073
N               -0.460478     0.592205     4.892254
H                0.438666     1.027440     4.908573
H               -0.800730     0.619890     3.953309
H               -0.345384    -0.365731     5.151616
7
xyz
O                1.758797    -0.310733     0.632786
H                1.412381    -1.088251     1.031707
H                2.073938    -0.565674    -0.215368
N               -0.404623     0.444562     4.656372
H                0.591137     0.406629     4.584399
H               -0.740434     1.086358     3.968270
H               -0.765479    -0.460941     4.437275
7
xyz
O                1.782384    -0.171963     0.830672
H                1.645136    -1.031567     1.185521
H                2.426001    -0.264932     0.151858
N               -0.397287     0.584237     4.735019
H                0.337768     1.178456     4.411363
H               -1.251426     0.894229     4.319679
H               -0.212828    -0.341927     4.408903
7
xyz
O                1.978671    -0.243853     1.031662
H                1.887143    -1.052266     1.502582
H                2.683203    -0.370221     0.422285
N               -0.174371     0.386603     4.926141
H                0.753452     0.735035     4.800071
H               -0.787902     0.924213     4.349329
H               -0.196286    -0.558941     4.604235
7
xyz
O                1.872778    -0.414737     0.860715
H                1.471351    -1.163761     1.262579
H                2.720700    -0.694219     0.566449
N               -0.296007     0.616448     4.671114
H                0.600691     0.726627     4.244559
H               -0.865186     1.391368     4.399655
H               -0.711907    -0.215681     4.306773
7
xyz
O                1.952147    -0.194387     0.654321
H                1.474645    -1.002223     0.709694
H                2.862516    -0.426227     0.620357
N               -0.316851     0.600040     4.558841
H                0.643377     0.340774     4.464506
H               -0.485722     1.384025     3.963017
H               -0.876346    -0.161449     4.234408
7
xyz
O                1.672764    -0.262583     0.820673
H                1.876279    -1.178884     0.769202
H                2.494809     0.188213     0.889233
N               -0.573932     0.616937     4.395502
H                0.423418     0.667877     4.424727
H               -0.891657     1.197152     3.646798
H               -0.829676    -0.325932     4.186337
7
xyz
O                1.883632    -0.176628     0.743229
H                1.955727    -1.111024     0.816592
H                2.750672     0.143614     0.571877
N               -0.473592     0.726878     4.599866
H                0.516678     0.774087     4.723529
H               -0.691074     1.099514     3.698755
H               -0.741161    -0.235655     4.609548
7
xyz
O                2.086997    -0.313871     0.783985
H                1.482867    -1.020384     0.644196
H                2.921638    -0.709346     0.959050
N               -0.596602     0.557366     4.626953
H                0.028339     0.068844     5.234366
H               -0.132014     0.699111     3.753900
H               -1.390075    -0.027426     4.463937
7
xyz
O                2.303549    -0.333095     0.649810
H                1.900437    -1.123015     0.338037
H                3.088429    -0.594293     1.096370
N               -0.611191     0.725648     4.847579
H               -0.169110     0.213482     5.582703
H                0.046246     0.826900     4.102139
H               -1.379582     0.183023     4.510995
7
xyz
O                2.216028    -0.260237     0.676982
H                1.349987    -0.617113     0.597689
H                2.797737    -0.993228     0.766498
N               -0.756122     0.743015     4.784160
H               -0.571192     0.273220     5.646280
H                0.017758     0.583722     4.172694
H               -1.566226     0.327457     4.372822
7
xyz
O                2.122221    -0.168921     0.587649
H                1.198588    -0.043259     0.709252
H                2.253617    -1.094848     0.492418
N               -0.680084     0.480712     4.960460
H               -0.244305     0.260828     5.832185
H                0.028146     0.497708     4.255991
H               -1.318830    -0.255037     4.739478
7
xyz
O                2.145278     0.004172     0.459491
H                1.289469     0.318708     0.230727
H                2.050530    -0.912963     0.642690
N               -0.486094     0.523867     4.948600
H               -0.474777     0.599460     5.944750
H                0.433603     0.722530     4.612673
H               -0.704221    -0.422078     4.712457
7
xyz
O                2.071736    -0.096440     0.222598
H                1.511167     0.383059    -0.360084
H                1.520360    -0.705024     0.680075
N               -0.596563     0.634296     5.119913
H               -0.277486     0.936513     6.017137
H                0.195511     0.573659     4.514027
H               -0.980142    -0.282705     5.220575
7
xyz
O                2.063035     0.110415    -0.028835
H                1.540514     0.586732    -0.648325
H                1.474458    -0.187822     0.640721
N               -0.553231     0.402325     5.384703
H               -0.084743     0.708409     6.212343
H               -0.015156     0.698855     4.596857
H               -0.569780    -0.596602     5.389898
