7
xyz
O                0.000000     0.063030     0.000000
H               -0.752652    -0.500166     0.000000
H                0.752652    -0.500166     0.000000
N                0.000000     0.000000     4.936823
H               -0.466791    -0.808506     5.292603
H               -0.466791     0.808506     5.292603
H                0.933582     0.000000     5.292603
7
xyz
O                0.000000     0.063030     0.000000
H               -0.752652    -0.500166     0.000000
H                0.752652    -0.500166     0.000000
N                0.000000     0.000000     4.936823
H               -0.466791    -0.808506     5.292603
H               -0.466791     0.808506     5.292603
H                0.933582     0.000000     5.292603
7
xyz
O                0.000000     0.063030     0.000000
H               -0.752652    -0.500166     0.000000
H                0.752652    -0.500166     0.000000
N                0.000000     0.000000     4.936823
H               -0.466791    -0.808506     5.292603
H               -0.466791     0.808506     5.292603
H                0.933582     0.000000     5.292603
7
xyz
O                0.000000     0.063030     0.000000
H               -0.752652    -0.500166     0.000000
H                0.752652    -0.500166     0.000000
N                0.000000     0.000000     4.936823
H               -0.466791    -0.808506     5.292603
H               -0.466791     0.808506     5.292603
H                0.933582     0.000000     5.292603
7
xyz
O                0.000000     0.063030     0.000000
H               -0.752652    -0.500166     0.000000
H                0.752652    -0.500166     0.000000
N                0.000000     0.000000     4.936823
H               -0.466791    -0.808506     5.292603
H               -0.466791     0.808506     5.292603
H                0.933582     0.000000     5.292603
7
xyz
O                0.000000     0.063030     0.000000
H               -0.752652    -0.500166     0.000000
H                0.752652    -0.500166     0.000000
N                0.000000     0.000000     4.936823
H               -0.466791    -0.808506     5.292603
H               -0.466791     0.808506     5.292603
H                0.933582     0.000000     5.292603
7
xyz
O                0.000000     0.063030     0.000000
H               -0.752652    -0.500166     0.000000
H                0.752652    -0.500166     0.000000
N                0.000000     0.000000     4.936823
H               -0.466791    -0.808506     5.292603
H               -0.466791     0.808506     5.292603
H                0.933582     0.000000     5.292603
7
xyz
O                0.000000     0.063030     0.000000
H               -0.752652    -0.500166     0.000000
H                0.752652    -0.500166     0.000000
N                0.000000     0.000000     4.936823
H               -0.466791    -0.808506     5.292603
H               -0.466791     0.808506     5.292603
H                0.933582     0.000000     5.292603
7
xyz
O                0.000000     0.063030     0.000000
H               -0.752652    -0.500166     0.000000
H                0.752652    -0.500166     0.000000
N                0.000000     0.000000     4.936823
H               -0.466791    -0.808506     5.292603
H               -0.466791     0.808506     5.292603
H                0.933582     0.000000     5.292603
7
xyz
O                0.000000     0.063030     0.000000
H               -0.752652    -0.500166     0.000000
H                0.752652    -0.500166     0.000000
N                0.000000     0.000000     4.936823
H               -0.466791    -0.808506     5.292603
H               -0.466791     0.808506     5.292603
H                0.933582     0.000000     5.292603
7
xyz
O                0.000000     0.063030     0.000000
H               -0.752652    -0.500166     0.000000
H                0.752652    -0.500166     0.000000
N                0.000000     0.000000     4.936823
H               -0.466791    -0.808506     5.292603
H               -0.466791     0.808506     5.292603
H                0.933582     0.000000     5.292603
7
xyz
O                0.000000     0.063030     0.000000
H               -0.752652    -0.500166     0.000000
H                0.752652    -0.500166     0.000000
N                0.000000     0.000000     4.936823
H               -0.466791    -0.808506     5.292603
H               -0.466791     0.808506     5.292603
H                0.933582     0.000000     5.292603
7
xyz
O                0.000000     0.063030     0.000000
H               -0.752652    -0.500166     0.000000
H                0.752652    -0.500166     0.000000
N                0.000000     0.000000     4.936823
H               -0.466791    -0.808506     5.292603
H               -0.466791     0.808506     5.292603
H                0.933582     0.000000     5.292603
7
xyz
O                0.000000     0.063030     0.000000
H               -0.752652    -0.500166     0.000000
H                0.752652    -0.500166     0.000000
N                0.000000     0.000000     4.936823
H               -0.466791    -0.808506     5.292603
H               -0.466791     0.808506     5.292603
H                0.933582     0.000000     5.292603
7
xyz
O                0.000000     0.063030     0.000000
H               -0.752652    -0.500166     0.000000
H                0.752652    -0.500166     0.000000
N                0.000000     0.000000     4.936823
H               -0.466791    -0.808506     5.292603
H               -0.466791     0.808506     5.292603
H                0.933582     0.000000     5.292603
7
xyz
O                0.000000     0.063030     0.000000
H               -0.752652    -0.500166     0.000000
H                0.752652    -0.500166     0.000000
N                0.000000     0.000000     4.936823
H               -0.466791    -0.808506     5.292603
H               -0.466791     0.808506     5.292603
H                0.933582     0.000000     5.292603
7
xyz
O                0.000000     0.063030     0.000000
H               -0.752652    -0.500166     0.000000
H                0.752652    -0.500166     0.000000
N                0.000000     0.000000     4.936823
H               -0.466791    -0.808506     5.292603
H               -0.466791     0.808506     5.292603
H                0.933582     0.000000     5.292603
7
xyz
O                0.000000     0.063030     0.000000
H               -0.752652    -0.500166     0.000000
H                0.752652    -0.500166     0.000000
N                0.000000     0.000000     4.936823
H               -0.466791    -0.808506     5.292603
H               -0.466791     0.808506     5.292603
H                0.933582     0.000000     5.292603
7
xyz
O                0.000000     0.063030     0.000000
H               -0.752652    -0.500166     0.000000
H                0.752652    -0.500166     0.000000
N                0.000000     0.000000     4.936823
H               -0.466791    -0.808506     5.292603
H               -0.466791     0.808506     5.292603
H                0.933582     0.000000     5.292603
7
xyz
O                0.000000     0.063030     0.000000
H               -0.752652    -0.500166     0.000000
H                0.752652    -0.500166     0.000000
N                0.000000     0.000000     4.936823
H               -0.466791    -0.808506     5.292603
H               -0.466791     0.808506     5.292603
H                0.933582     0.000000     5.292603
7
xyz
O                0.000000     0.063030     0.000000
H               -0.752652    -0.500166     0.000000
H                0.752652    -0.500166     0.000000
N                0.000000     0.000000     4.936823
H               -0.466791    -0.808506     5.292603
H               -0.466791     0.808506     5.292603
H                0.933582     0.000000     5.292603
7
xyz
O                0.000000     0.063030     0.000000
H               -0.752652    -0.500166     0.000000
H                0.752652    -0.500166     0.000000
N                0.000000     0.000000     4.936823
H               -0.466791    -0.808506     5.292603
H               -0.466791     0.808506     5.292603
H                0.933582     0.000000     5.292603
7
xyz
O                0.000000     0.063030     0.000000
H               -0.752652    -0.500166     0.000000
H                0.752652    -0.500166     0.000000
N                0.000000     0.000000     4.936823
H               -0.466791    -0.808506     5.292603
H               -0.466791     0.808506     5.292603
H                0.933582     0.000000     5.292603
7
xyz
O                0.000000     0.063030     0.000000
H               -0.752652    -0.500166     0.000000
H                0.752652    -0.500166     0.000000
N                0.000000     0.000000     4.936823
H               -0.466791    -0.808506     5.292603
H               -0.466791     0.808506     5.292603
H                0.933582     0.000000     5.292603
7
xyz
O                0.000000     0.063030     0.000000
H               -0.752652    -0.500166     0.000000
H                0.752652    -0.500166     0.000000
N                0.000000     0.000000     4.936823
H               -0.466791    -0.808506     5.292603
H               -0.466791     0.808506     5.292603
H                0.933582     0.000000     5.292603
7
xyz
O                0.000000     0.063030     0.000000
H               -0.752652    -0.500166     0.000000
H                0.752652    -0.500166     0.000000
N                0.000000     0.000000     4.936823
H               -0.466791    -0.808506     5.292603
H               -0.466791     0.808506     5.292603
H                0.933582     0.000000     5.292603
7
xyz
O                0.000000     0.063030     0.000000
H               -0.752652    -0.500166     0.000000
H                0.752652    -0.500166     0.000000
N                0.000000     0.000000     4.936823
H               -0.466791    -0.808506     5.292603
H               -0.466791     0.808506     5.292603
H                0.933582     0.000000     5.292603
7
xyz
O                0.000000     0.063030     0.000000
H               -0.752652    -0.500166     0.000000
H                0.752652    -0.500166     0.000000
N                0.000000     0.000000     4.936823
H               -0.466791    -0.808506     5.292603
H               -0.466791     0.808506     5.292603
H                0.933582     0.000000     5.292603
7
xyz
O                0.000000     0.063030     0.000000
H               -0.752652    -0.500166     0.000000
H                0.752652    -0.500166     0.000000
N                0.000000     0.000000     4.936823
H               -0.466791    -0.808506     5.292603
H               -0.466791     0.808506     5.292603
H                0.933582     0.000000     5.292603
7
xyz
O                0.000000     0.063030     0.000000
H               -0.752652    -0.500166     0.000000
H                0.752652    -0.500166     0.000000
N                0.000000     0.000000     4.936823
H               -0.466791    -0.808506     5.292603
H               -0.466791     0.808506     5.292603
H                0.933582     0.000000     5.292603
7
xyz
O                0.000000     0.063030     0.000000
H               -0.752652    -0.500166     0.000000
H                0.752652    -0.500166     0.000000
N                0.000000     0.000000     4.936823
H               -0.466791    -0.808506     5.292603
H               -0.466791     0.808506     5.292603
H                0.933582     0.000000     5.292603
7
xyz
O                0.000000     0.063030     0.000000
H               -0.752652    -0.500166     0.000000
H                0.752652    -0.500166     0.000000
N                0.000000     0.000000     4.936823
H               -0.466791    -0.808506     5.292603
H               -0.466791     0.808506     5.292603
H                0.933582     0.000000     5.292603
7
xyz
O                0.000000     0.063030     0.000000
H               -0.752652    -0.500166     0.000000
H                0.752652    -0.500166     0.000000
N                0.000000     0.000000     4.936823
H               -0.466791    -0.808506     5.292603
H               -0.466791     0.808506     5.292603
H                0.933582     0.000000     5.292603
7
xyz
O                0.000000     0.063030     0.000000
H               -0.752652    -0.500166     0.000000
H                0.752652    -0.500166     0.000000
N                0.000000     0.000000     4.936823
H               -0.466791    -0.808506     5.292603
H               -0.466791     0.808506     5.292603
H                0.933582     0.000000     5.292603
7
xyz
O                0.000000     0.063030     0.000000
H               -0.752652    -0.500166     0.000000
H                0.752652    -0.500166     0.000000
N                0.000000     0.000000     4.936823
H               -0.466791    -0.808506     5.292603
H               -0.466791     0.808506     5.292603
H                0.933582     0.000000     5.292603
7
xyz
O                0.000000     0.063030     0.000000
H               -0.752652    -0.500166     0.000000
H                0.752652    -0.500166     0.000000
N                0.000000     0.000000     4.936823
H               -0.466791    -0.808506     5.292603
H               -0.466791     0.808506     5.292603
H                0.933582     0.000000     5.292603
7
xyz
O                0.000000     0.063030     0.000000
H               -0.752652    -0.500166     0.000000
H                0.752652    -0.500166     0.000000
N                0.000000     0.000000     4.936823
H               -0.466791    -0.808506     5.292603
H               -0.466791     0.808506     5.292603
H                0.933582     0.000000     5.292603
7
xyz
O                0.000000     0.063030     0.000000
H               -0.752652    -0.500166     0.000000
H                0.752652    -0.500166     0.000000
N                0.000000     0.000000     4.936823
H               -0.466791    -0.808506     5.292603
H               -0.466791     0.808506     5.292603
H                0.933582     0.000000     5.292603
7
xyz
O                0.000000     0.063030     0.000000
H               -0.752652    -0.500166     0.000000
H                0.752652    -0.500166     0.000000
N                0.000000     0.000000     4.936823
H               -0.466791    -0.808506     5.292603
H               -0.466791     0.808506     5.292603
H                0.933582     0.000000     5.292603
7
xyz
O                0.000000     0.063030     0.000000
H               -0.752652    -0.500166     0.000000
H                0.752652    -0.500166     0.000000
N                0.000000     0.000000     4.936823
H               -0.466791    -0.808506     5.292603
H               -0.466791     0.808506     5.292603
H                0.933582     0.000000     5.292603
7
xyz
O                0.000000     0.063030     0.000000
H               -0.752652    -0.500166     0.000000
H                0.752652    -0.500166     0.000000
N                0.000000     0.000000     4.936823
H               -0.466791    -0.808506     5.292603
H               -0.466791     0.808506     5.292603
H                0.933582     0.000000     5.292603
7
xyz
O                0.000000     0.063030     0.000000
H               -0.752652    -0.500166     0.000000
H                0.752652    -0.500166     0.000000
N                0.000000     0.000000     4.936823
H               -0.466791    -0.808506     5.292603
H               -0.466791     0.808506     5.292603
H                0.933582     0.000000     5.292603
7
xyz
O                0.000000     0.063030     0.000000
H               -0.752652    -0.500166     0.000000
H                0.752652    -0.500166     0.000000
N                0.000000     0.000000     4.936823
H               -0.466791    -0.808506     5.292603
H               -0.466791     0.808506     5.292603
H                0.933582     0.000000     5.292603
7
xyz
O                0.000000     0.063030     0.000000
H               -0.752652    -0.500166     0.000000
H                0.752652    -0.500166     0.000000
N                0.000000     0.000000     4.936823
H               -0.466791    -0.808506     5.292603
H               -0.466791     0.808506     5.292603
H                0.933582     0.000000     5.292603
7
xyz
O                0.000000     0.063030     0.000000
H               -0.752652    -0.500166     0.000000
H                0.752652    -0.500166     0.000000
N                0.000000     0.000000     4.936823
H               -0.466791    -0.808506     5.292603
H               -0.466791     0.808506     5.292603
H                0.933582     0.000000     5.292603
7
xyz
O                0.000000     0.063030     0.000000
H               -0.752652    -0.500166     0.000000
H                0.752652    -0.500166     0.000000
N                0.000000     0.000000     4.936823
H               -0.466791    -0.808506     5.292603
H               -0.466791     0.808506     5.292603
H                0.933582     0.000000     5.292603
7
xyz
O                0.000000     0.063030     0.000000
H               -0.752652    -0.500166     0.000000
H                0.752652    -0.500166     0.000000
N                0.000000     0.000000     4.936823
H               -0.466791    -0.808506     5.292603
H               -0.466791     0.808506     5.292603
H                0.933582     0.000000     5.292603
7
xyz
O                0.000000     0.063030     0.000000
H               -0.752652    -0.500166     0.000000
H                0.752652    -0.500166     0.000000
N                0.000000     0.000000     4.936823
H               -0.466791    -0.808506     5.292603
H               -0.466791     0.808506     5.292603
H                0.933582     0.000000     5.292603
7
xyz
O                0.000000     0.063030     0.000000
H               -0.752652    -0.500166     0.000000
H                0.752652    -0.500166     0.000000
N                0.000000     0.000000     4.936823
H               -0.466791    -0.808506     5.292603
H               -0.466791     0.808506     5.292603
H                0.933582     0.000000     5.292603
7
xyz
O                0.000000     0.063030     0.000000
H               -0.752652    -0.500166     0.000000
H                0.752652    -0.500166     0.000000
N                0.000000     0.000000     4.936823
H               -0.466791    -0.808506     5.292603
H               -0.466791     0.808506     5.292603
H                0.933582     0.000000     5.292603
7
xyz
O                0.000000     0.063030     0.000000
H               -0.752652    -0.500166     0.000000
H                0.752652    -0.500166     0.000000
N                0.000000     0.000000     4.936823
H               -0.466791    -0.808506     5.292603
H               -0.466791     0.808506     5.292603
H                0.933582     0.000000     5.292603
7
xyz
O                0.000000     0.063030     0.000000
H               -0.752652    -0.500166     0.000000
H                0.752652    -0.500166     0.000000
N                0.000000     0.000000     4.936823
H               -0.466791    -0.808506     5.292603
H               -0.466791     0.808506     5.292603
H                0.933582     0.000000     5.292603
